LTspice 24.1.10 for Windows
Circuit: C:\Users\user\Documents\projekt.net
Start Time: Sun Dec  7 03:14:07 2025
solver = Normal
Maximum thread count: 12
tnom = 27
temp = 27
method = trap
Early termination of direct N-R iteration.
Direct Newton iteration failed to find .op point.  (Use ".option noopiter" to skip.)
Starting Gmin stepping
Gmin = 10
vernier = 0.5
vernier = 0.25
vernier = 0.125
Gmin = 6.68666
vernier = 0.0625
vernier = 0.03125
vernier = 0.015625
vernier = 0.0078125
vernier = 0.00390625
Gmin = 6.84217
vernier = 0.00195312
vernier = 0.000976562
vernier = 0.000488281
Gmin = 0
Gmin = 0
Gmin stepping failed

Starting source stepping with srcstepmethod=0
Source Step = 3.0303%
Source Step = 4.55433%
Source Step = 4.58393%
Source Step = 4.61352%
Source Step = 4.64311%
Source Step = 4.6727%
vernier = 0.00146484
Source Step = 4.70378%
Source Step = 4.74817%
Source Step = 4.79255%
Source Step = 4.83694%
Source Step = 4.88133%
Source Step = 4.92572%
vernier = 0.00219727
Source Step = 4.99231%
Source Step = 5.05889%
Source Step = 5.12547%
Source Step = 5.19206%
Source Step = 5.25864%
vernier = 0.0032959
Source Step = 5.35519%
Source Step = 5.45506%
Source Step = 5.55494%
Source Step = 5.65481%
Source Step = 5.75469%
vernier = 0.00494385
Source Step = 5.89452%
Source Step = 6.04433%
Source Step = 6.19414%
Source Step = 6.34396%
Source Step = 6.49377%
vernier = 0.00741577
Source Step = 6.69602%
Source Step = 6.92074%
Source Step = 7.14546%
Source Step = 7.37018%
Source Step = 7.5949%
vernier = 0.0111237
Source Step = 7.88704%
Source Step = 8.22412%
Source Step = 8.5612%
Source Step = 8.89828%
Source Step = 9.23536%
vernier = 0.0166855
Source Step = 9.65671%
Source Step = 10.1623%
Source Step = 10.668%
Source Step = 11.1736%
Source Step = 11.6792%
vernier = 0.0250282
Source Step = 12.2859%
Source Step = 13.0444%
Source Step = 13.0823%
Source Step = 13.1297%
Source Step = 13.1771%
Source Step = 13.2245%
Source Step = 13.2719%
Source Step = 13.3193%
vernier = 0.0023464
Source Step = 13.3762%
Source Step = 13.4473%
Source Step = 13.5184%
Source Step = 13.5895%
Source Step = 13.6606%
vernier = 0.00351959
Source Step = 13.7424%
Source Step = 13.849%
Source Step = 13.9557%
Source Step = 14.0623%
Source Step = 14.169%
vernier = 0.00527939
Source Step = 14.2863%
Source Step = 14.4463%
Source Step = 14.6063%
Source Step = 14.7662%
Source Step = 14.9262%
vernier = 0.00791909
Source Step = 15.0942%
Source Step = 15.3342%
Source Step = 15.5742%
Source Step = 15.8141%
Source Step = 16.0541%
Source Step = 16.2941%
vernier = 0.0118786
Source Step = 16.654%
Source Step = 17.014%
Source Step = 17.3739%
Source Step = 17.7339%
Source Step = 18.0939%
vernier = 0.0178179
Source Step = 18.6158%
Source Step = 19.1557%
Source Step = 19.6957%
Source Step = 20.2356%
Source Step = 20.7756%
vernier = 0.0267269
Source Step = 21.5315%
Source Step = 22.3414%
Source Step = 23.1513%
Source Step = 23.9612%
Source Step = 24.7711%
vernier = 0.0400904
Source Step = 25.8645%
Source Step = 27.0793%
Source Step = 28.2942%
Source Step = 29.509%
Source Step = 30.7239%
vernier = 0.0601356
Source Step = 32.3032%
Source Step = 34.1255%
Source Step = 35.9478%
Source Step = 37.7701%
Source Step = 39.5924%
vernier = 0.0902034
Source Step = 41.8702%
Source Step = 44.6037%
Source Step = 47.3371%
Source Step = 50.0706%
Source Step = 52.804%
vernier = 0.135305
Source Step = 56.0841%
Source Step = 60.1843%
Source Step = 64.2844%
Source Step = 68.3846%
Source Step = 72.4847%
vernier = 0.202958
Source Step = 77.1999%
Source Step = 83.3501%
Source Step = 89.5004%
Source Step = 90.173%
Source Step = 90.2691%
Source Step = 90.3652%
Source Step = 90.4613%
Source Step = 90.5574%
Source Step = 90.6535%
Source Step = 90.7496%
Source Step = 90.8457%
Source Step = 90.9418%
Source Step = 91.0379%
Source Step = 91.134%
Source Step = 91.2301%
Source Step = 91.3262%
Source Step = 91.4223%
Source Step = 91.5184%
Source Step = 91.6145%
Source Step = 91.7106%
Source Step = 91.8067%
Source Step = 91.9028%
Source Step = 91.9989%
Source Step = 92.095%
Source Step = 92.1911%
Source Step = 92.2872%
Source Step = 92.3833%
Source Step = 92.4794%
Source Step = 92.5755%
Source Step = 92.6716%
Source Step = 92.7677%
Source Step = 92.8638%
Source Step = 92.9599%
Source Step = 93.056%
Source Step = 93.1521%
Source Step = 93.2482%
Source Step = 93.3442%
Source Step = 93.4403%
Source Step = 93.5364%
Source Step = 93.6325%
Source Step = 93.7286%
Source Step = 93.8247%
Source Step = 93.9208%
Source Step = 94.0169%
Source Step = 94.113%
Source Step = 94.2091%
Source Step = 94.3052%
Source Step = 94.4013%
Source Step = 94.4974%
Source Step = 94.5935%
Source Step = 94.6896%
Source Step = 94.7857%
Source Step = 94.8818%
Source Step = 94.9779%
Source Step = 95.074%
Source Step = 95.1701%
Source Step = 95.2662%
Source Step = 95.3623%
Source Step = 95.4584%
Source Step = 95.5545%
Source Step = 95.6506%
Source Step = 95.7467%
Source Step = 95.8428%
Source Step = 95.9389%
Source Step = 96.035%
Source Step = 96.1311%
Source Step = 96.2272%
Source Step = 96.3233%
Source Step = 96.4194%
Source Step = 96.5155%
Source Step = 96.6116%
Source Step = 96.7077%
Source Step = 96.8038%
vernier = 0.00475682
Source Step = 96.9143%
Source Step = 97.0584%
Source Step = 97.2026%
Source Step = 97.3467%
Source Step = 97.4908%
vernier = 0.00713523
Source Step = 97.6494%
Source Step = 97.8656%
Source Step = 98.0818%
Source Step = 98.2981%
Source Step = 98.5143%
vernier = 0.0107028
Source Step = 98.7413%
Source Step = 99.0656%
Source Step = 99.39%
Source Step = 99.7143%
Source stepping succeeded in finding the operating point.

Total elapsed time: 15.924 seconds.

Files loaded:
C:\Users\user\Documents\projekt.net
C:\Users\user\Documents\LTspice\LM3886.lib
C:\Users\user\Documents\New folder\opa132.lib

